Version 4
SHEET 1 1796 680
WIRE -112 -368 -112 -416
WIRE -112 -256 -112 -288
WIRE -112 -256 -176 -256
WIRE -64 -256 -112 -256
WIRE -176 -224 -176 -256
WIRE -64 -224 -64 -256
WIRE -512 -176 -512 -208
WIRE -176 -128 -176 -160
WIRE -176 -128 -256 -128
WIRE -64 -128 -64 -160
WIRE 176 -128 -64 -128
WIRE 288 -128 176 -128
WIRE 288 -112 288 -128
WIRE -176 -96 -176 -128
WIRE -64 -96 -64 -128
WIRE 176 -96 176 -128
WIRE -256 -80 -256 -128
WIRE -512 -64 -512 -96
WIRE -176 0 -176 -32
WIRE -112 0 -176 0
WIRE -64 0 -64 -32
WIRE -64 0 -112 0
WIRE 176 0 176 -32
WIRE 288 0 288 -32
WIRE 288 0 176 0
WIRE 176 32 176 0
WIRE -112 48 -112 0
FLAG -112 -416 Vfence
IOPIN -112 -416 Out
FLAG -512 -208 Vfence
IOPIN -512 -208 Out
FLAG -512 -64 Gfence
IOPIN -512 -64 In
FLAG -112 48 Gfence
IOPIN -112 48 In
FLAG -256 -80 0
FLAG 176 32 0
SYMBOL voltage -512 -192 R0
WINDOW 3 13 470 Left 2
WINDOW 123 0 0 Left 0
WINDOW 39 0 0 Left 0
SYMATTR Value PWL value_scale_factor={VSCALE} 0.5 0 repeat forever (file=FencePulse.pwl) endrepeat
SYMATTR InstName V1
SYMBOL res -96 -272 R180
WINDOW 0 36 76 Left 2
WINDOW 3 36 40 Left 2
SYMATTR InstName R1
SYMATTR Value 1Meg
SYMBOL diode -80 -224 R0
SYMATTR InstName D3
SYMATTR Value 1N4148
SYMBOL diode -48 -32 R180
WINDOW 0 24 64 Left 2
WINDOW 3 24 0 Left 2
SYMATTR InstName D4
SYMATTR Value 1N4148
SYMBOL diode -160 -160 R180
WINDOW 0 24 64 Left 2
WINDOW 3 24 0 Left 2
SYMATTR InstName D5
SYMATTR Value 1N4148
SYMBOL diode -192 -96 R0
SYMATTR InstName D6
SYMATTR Value 1N4148
SYMBOL cap 160 -96 R0
SYMATTR InstName C1
SYMATTR Value 100µ
SYMBOL res 272 -128 R0
SYMATTR InstName R2
SYMATTR Value 10Meg
TEXT -496 304 Left 2 !.tran 0 10 0
TEXT -496 248 Left 2 !.step param VSCALE list 0.1 0.2 0.5 1 1.2
