Version 4
SHEET 1 1460 680
WIRE 96 -16 -272 -16
WIRE 256 -16 96 -16
WIRE 544 -16 256 -16
WIRE 672 -16 544 -16
WIRE 816 -16 672 -16
WIRE 96 32 96 -16
WIRE 256 32 256 -16
WIRE 816 32 816 -16
WIRE 544 48 544 -16
WIRE 672 48 672 -16
WIRE -272 112 -272 -16
WIRE 256 144 256 112
WIRE 416 144 256 144
WIRE 544 144 544 128
WIRE 672 144 672 112
WIRE 672 144 544 144
WIRE 704 144 672 144
WIRE 816 144 816 96
WIRE 816 144 784 144
WIRE 256 176 256 144
WIRE 544 176 544 144
WIRE 0 224 -80 224
WIRE 96 224 96 112
WIRE 96 224 64 224
WIRE 192 224 96 224
WIRE 416 224 416 144
WIRE 480 224 416 224
WIRE 672 224 672 144
WIRE -80 240 -80 224
WIRE 96 256 96 224
WIRE -272 368 -272 192
WIRE -80 368 -80 320
WIRE -80 368 -272 368
WIRE 96 368 96 336
WIRE 96 368 -80 368
WIRE 256 368 256 272
WIRE 256 368 96 368
WIRE 544 368 544 272
WIRE 544 368 256 368
WIRE 672 368 672 304
WIRE 672 368 544 368
WIRE 256 432 256 368
FLAG 256 432 0
SYMBOL res 240 16 R0
SYMATTR InstName R1
SYMATTR Value 2.2k
SYMBOL res 112 128 R180
WINDOW 0 36 76 Left 2
WINDOW 3 36 40 Left 2
SYMATTR InstName R2
SYMATTR Value 220k
SYMBOL cap 64 208 R90
WINDOW 0 0 32 VBottom 2
WINDOW 3 32 32 VTop 2
SYMATTR InstName C2
SYMATTR Value 10µ
SYMBOL voltage -80 224 R0
WINDOW 123 0 0 Left 0
WINDOW 39 0 0 Left 0
SYMATTR InstName V1
SYMATTR Value SINE(0 0.01 50 0.4 0 0 40)
SYMBOL voltage -272 96 R0
WINDOW 123 0 0 Left 0
WINDOW 39 24 124 Left 2
SYMATTR SpiceLine Rser=10
SYMATTR InstName V2
SYMATTR Value 3.3
SYMBOL npn 192 176 R0
SYMATTR InstName Q2
SYMATTR Value BC547C
SYMBOL npn 480 176 R0
SYMATTR InstName Q1
SYMATTR Value BC547B
SYMBOL res 528 32 R0
SYMATTR InstName R5
SYMATTR Value 2.2k
SYMBOL cap 656 48 R0
SYMATTR InstName C1
SYMATTR Value 33µ
SYMBOL res 656 208 R0
SYMATTR InstName R3
SYMATTR Value 1e6
SYMBOL diode 800 32 R0
SYMATTR InstName D1
SYMATTR Value 1N914
SYMBOL res 800 128 R90
WINDOW 0 0 56 VBottom 2
WINDOW 3 32 56 VTop 2
SYMATTR InstName R4
SYMATTR Value 1k
TEXT -304 456 Left 2 !.tran 0 2 0 0.01
